[TITLE]
;;Project Title/Notes

[OPTIONS]
;;Option             Value
FLOW_UNITS           LPS
INFILTRATION         HORTON
FLOW_ROUTING         DYNWAVE
LINK_OFFSETS         DEPTH
MIN_SLOPE            0
ALLOW_PONDING        YES
SKIP_STEADY_STATE    YES

START_DATE           10/12/2020
START_TIME           00:00:00
REPORT_START_DATE    10/12/2020
REPORT_START_TIME    00:00:00
END_DATE             10/12/2020
END_TIME             06:00:00
SWEEP_START          1/1
SWEEP_END            12/31
DRY_DAYS             0
REPORT_STEP          00:01:00
WET_STEP             00:01:00
DRY_STEP             00:30:00
ROUTING_STEP         0:01:00 

INERTIAL_DAMPING     PARTIAL
NORMAL_FLOW_LIMITED  BOTH
FORCE_MAIN_EQUATION  H-W
VARIABLE_STEP        0.75
LENGTHENING_STEP     0
MIN_SURFAREA         1.14
MAX_TRIALS           8
HEAD_TOLERANCE       0.0015
SYS_FLOW_TOL         5
LAT_FLOW_TOL         5
MINIMUM_STEP         0.5
THREADS              1


[EVAPORATION]
;;Data Source    Parameters
;;-------------- ----------------
CONSTANT         0.0
DRY_ONLY         NO

[RAINGAGES]
;;Name           Format    Interval SCF      Source    
;;-------------- --------- ------ ------ ----------
1                VOLUME 0:01     1.0      TIMESERIES 5yChicago-6h           

[SUBCATCHMENTS]
;;Name           Rain Gage        Outlet           Area     %Imperv  Width    %Slope   CurbLen  SnowPack        
;;-------------- ---------------- ---------------- -------- -------- -------- -------- -------- ----------------















































































































[SUBAREAS]
;;Subcatchment   N-Imperv   N-Perv     S-Imperv   S-Perv     PctZero    RouteTo    PctRouted 
;;-------------- ---------- ---------- ---------- ---------- ---------- ---------- ----------


















































































































[INFILTRATION]
;;Subcatchment   MaxRate    MinRate    Decay      DryTime    MaxInfil  
;;-------------- ---------- ---------- ---------- ---------- ----------









































































































































[LID_CONTROLS]
;;Name           Type/Layer Parameters
;;-------------- ---------- ----------
1                BC
1                SURFACE    450        0.05       0.1        0.5        5         
1                SOIL       900        0.5        0.15       0.08       50         10         80        
1                STORAGE    300        0.67       500         0         
1                DRAIN      2.5        2.5        150        6          0          0                    

2                PP
2                SURFACE    0.0        0.0        0.012      0.5        5         
2                PAVEMENT   100        0.15       0          500        0          0          0         
2                STORAGE    300        0.4        500         0         
2                DRAIN      2.5        0.5        100        6          0          0                    

[LID_USAGE]
;;Subcatchment   LID Process      Number  Area       Width      InitSat    FromImp    ToPerv     RptFile                  DrainTo         
;;-------------- ---------------- ------- ---------- ---------- ---------- ---------- ---------- ------------------------ ----------------






































































    

































































































[JUNCTIONS]
;;Name           Elevation  MaxDepth   InitDepth  SurDepth   Aponded   
;;-------------- ---------- ---------- ---------- ---------- ----------
































































































































[OUTFALLS]
;;Name           Elevation  Type       Stage Data       Gated    Route To        
;;-------------- ---------- ---------- ---------------- -------- ----------------


































































































                     

[CONDUITS]
;;Name           From Node        To Node          Length     Roughness  InOffset   OutOffset  InitFlow   MaxFlow   
;;-------------- ---------------- ---------------- ---------- ---------- ---------- ---------- ---------- ----------































































































































[XSECTIONS]
;;Link           Shape        Geom1            Geom2      Geom3      Geom4      Barrels    Culvert   
;;-------------- ------------ ---------------- ---------- ---------- ---------- ---------- ----------

















































































































































[TIMESERIES]
;;Name           Date       Time       Value     
;;-------------- ---------- ---------- ----------
10                          0:00       0.369     
10                          0:01       0.369     
10                          0:02       0.369     
10                          0:03       0.369     
10                          0:04       0.369     
10                          0:05       0.369     
10                          0:06       0.369     
10                          0:07       0.369     
10                          0:08       0.369     
10                          0:09       0.369     
10                          0:10       0.369     
10                          0:11       0.369     
10                          0:12       0.369     
10                          0:13       0.369     
10                          0:14       0.369     
10                          0:15       0.369     
10                          0:16       0.369     
10                          0:17       0.369     
10                          0:18       0.369     
10                          0:19       0.369     
10                          0:20       0.369     
10                          0:21       0.369     
10                          0:22       0.369     
10                          0:23       0.369     
10                          0:24       0.369     
10                          0:25       0.369     
10                          0:26       0.369     
10                          0:27       0.369     
10                          0:28       0.369     
10                          0:29       0.369     
10                          0:30       0.369     
10                          0:31       0.369     
10                          0:32       0.369     
10                          0:33       0.369     
10                          0:34       0.369     
10                          0:35       0.369     
10                          0:36       0.369     
10                          0:37       0.369     
10                          0:38       0.369     
10                          0:39       0.369     
10                          0:40       0.369     
10                          0:41       0.369     
10                          0:42       0.369     
10                          0:43       0.369     
10                          0:44       0.369     
10                          0:45       0.369     
10                          0:46       0.369     
10                          0:47       0.369     
10                          0:48       0.369     
10                          0:49       0.369     
10                          0:50       0.369     
10                          0:51       0.369     
10                          0:52       0.369     
10                          0:53       0.369     
10                          0:54       0.369     
10                          0:55       0.369     
10                          0:56       0.369     
10                          0:57       0.369     
10                          0:58       0.369     
10                          0:59       0.369     
10                          1:00       0.369     
10                          1:01       0.369     
10                          1:02       0.369     
10                          1:03       0.369     
10                          1:04       0.369     
10                          1:05       0.369     
10                          1:06       0.369     
10                          1:07       0.369     
10                          1:08       0.369     
10                          1:09       0.369     
10                          1:10       0.369     
10                          1:11       0.369     
10                          1:12       0.369     
10                          1:13       0.369     
10                          1:14       0.369     
10                          1:15       0.369     
10                          1:16       0.369     
10                          1:17       0.369     
10                          1:18       0.369     
10                          1:19       0.369     
10                          1:20       0.369     
10                          1:21       0.369     
10                          1:22       0.369     
10                          1:23       0.369     
10                          1:24       0.369     
10                          1:25       0.369     
10                          1:26       0.369     
10                          1:27       0.369     
10                          1:28       0.369     
10                          1:29       0.369     
10                          1:30       0.369     
10                          1:31       0.369     
10                          1:32       0.369     
10                          1:33       0.369     
10                          1:34       0.369     
10                          1:35       0.369     
10                          1:36       0.369     
10                          1:37       0.369     
10                          1:38       0.369     
10                          1:39       0.369     
10                          1:40       0.369     
10                          1:41       0.369     
10                          1:42       0.369     
10                          1:43       0.369     
10                          1:44       0.369     
10                          1:45       0.369     
10                          1:46       0.369     
10                          1:47       0.369     
10                          1:48       0.369     
10                          1:49       0.369     
10                          1:50       0.369     
10                          1:51       0.369     
10                          1:52       0.369     
10                          1:53       0.369     
10                          1:54       0.369     
10                          1:55       0.369     
10                          1:56       0.369     
10                          1:57       0.369     
10                          1:58       0.369     
10                          1:59       0.369     
10                          2:00       0.369     
10                          2:01       0.369     
10                          2:02       0.369     
10                          2:03       0.369     
10                          2:04       0.369     
10                          2:05       0.369     
10                          2:06       0.369     
10                          2:07       0.369     
10                          2:08       0.369     
10                          2:09       0.369     
10                          2:10       0.369     
10                          2:11       0.369     
10                          2:12       0.369     
10                          2:13       0.369     
10                          2:14       0.369     
10                          2:15       0.369     
10                          2:16       0.369     
10                          2:17       0.369     
10                          2:18       0.369     
10                          2:19       0.369     
10                          2:20       0.369     
10                          2:21       0.369     
10                          2:22       0.369     
10                          2:23       0.369     
10                          2:24       0.369     
10                          2:25       0.369     
10                          2:26       0.369     
10                          2:27       0.369     
10                          2:28       0.369     
10                          2:29       0.369     
10                          2:30       0.369     
10                          2:31       0.369     
10                          2:32       0.369     
10                          2:33       0.369     
10                          2:34       0.369     
10                          2:35       0.369     
10                          2:36       0.369     
10                          2:37       0.369     
10                          2:38       0.369     
10                          2:39       0.369     
10                          2:40       0.369     
10                          2:41       0.369     
10                          2:42       0.369     
10                          2:43       0.369     
10                          2:44       0.369     
10                          2:45       0.369     
10                          2:46       0.369     
10                          2:47       0.369     
10                          2:48       0.369     
10                          2:49       0.369     
10                          2:50       0.369     
10                          2:51       0.369     
10                          2:52       0.369     
10                          2:53       0.369     
10                          2:54       0.369     
10                          2:55       0.369     
10                          2:56       0.369     
10                          2:57       0.369     
10                          2:58       0.369     
10                          2:59       0.369     
10                          3:00       0.369     
10                          3:01       0.369     
10                          3:02       0.369     
10                          3:03       0.369     
10                          3:04       0.369     
10                          3:05       0.369     
10                          3:06       0.369     
10                          3:07       0.369     
10                          3:08       0.369     
10                          3:09       0.369     
10                          3:10       0.369     
10                          3:11       0.369     
10                          3:12       0.369     
10                          3:13       0.369     
10                          3:14       0.369     
10                          3:15       0.369     
10                          3:16       0.369     
10                          3:17       0.369     
10                          3:18       0.369     
10                          3:19       0.369     
10                          3:20       0.369     
10                          3:21       0.369     
10                          3:22       0.369     
10                          3:23       0.369     
10                          3:24       0.369     
10                          3:25       0.369     
10                          3:26       0.369     
10                          3:27       0.369     
10                          3:28       0.369     
10                          3:29       0.369     
10                          3:30       0.369     
10                          3:31       0.369     
10                          3:32       0.369     
10                          3:33       0.369     
10                          3:34       0.369     
10                          3:35       0.369     
10                          3:36       0.369     
10                          3:37       0.369     
10                          3:38       0.369     
10                          3:39       0.369     
10                          3:40       0.369     
10                          3:41       0.369     
10                          3:42       0.369     
10                          3:43       0.369     
10                          3:44       0.369     
10                          3:45       0.369     
10                          3:46       0.369     
10                          3:47       0.369     
10                          3:48       0.369     
10                          3:49       0.369     
10                          3:50       0.369     
10                          3:51       0.369     
10                          3:52       0.369     
10                          3:53       0.369     
10                          3:54       0.369     
10                          3:55       0.369     
10                          3:56       0.369     
10                          3:57       0.369     
10                          3:58       0.369     
10                          3:59       0.369     
10                          4:00       0.369     
10                          4:01       0.369     
10                          4:02       0.369     
10                          4:03       0.369     
10                          4:04       0.369     
10                          4:05       0.369     
10                          4:06       0.369     
10                          4:07       0.369     
10                          4:08       0.369     
10                          4:09       0.369     
10                          4:10       0.369     
10                          4:11       0.369     
10                          4:12       0.369     
10                          4:13       0.369     
10                          4:14       0.369     
10                          4:15       0.369     
10                          4:16       0.369     
10                          4:17       0.369     
10                          4:18       0.369     
10                          4:19       0.369     
10                          4:20       0.369     
10                          4:21       0.369     
10                          4:22       0.369     
10                          4:23       0.369     
10                          4:24       0.369     
10                          4:25       0.369     
10                          4:26       0.369     
10                          4:27       0.369     
10                          4:28       0.369     
10                          4:29       0.369     
10                          4:30       0.369     
10                          4:31       0.369     
10                          4:32       0.369     
10                          4:33       0.369     
10                          4:34       0.369     
10                          4:35       0.369     
10                          4:36       0.369     
10                          4:37       0.369     
10                          4:38       0.369     
10                          4:39       0.369     
10                          4:40       0.369     
10                          4:41       0.369     
10                          4:42       0.369     
10                          4:43       0.369     
10                          4:44       0.369     
10                          4:45       0.369     
10                          4:46       0.369     
10                          4:47       0.369     
10                          4:48       0.369     
10                          4:49       0.369     
10                          4:50       0.369     
10                          4:51       0.369     
10                          4:52       0.369     
10                          4:53       0.369     
10                          4:54       0.369     
10                          4:55       0.369     
10                          4:56       0.369     
10                          4:57       0.369     
10                          4:58       0.369     
10                          4:59       0.369     
10                          5:00       0.369     
10                          5:01       0.369     
10                          5:02       0.369     
10                          5:03       0.369     
10                          5:04       0.369     
10                          5:05       0.369     
10                          5:06       0.369     
10                          5:07       0.369     
10                          5:08       0.369     
10                          5:09       0.369     
10                          5:10       0.369     
10                          5:11       0.369     
10                          5:12       0.369     
10                          5:13       0.369     
10                          5:14       0.369     
10                          5:15       0.369     
10                          5:16       0.369     
10                          5:17       0.369     
10                          5:18       0.369     
10                          5:19       0.369     
10                          5:20       0.369     
10                          5:21       0.369     
10                          5:22       0.369     
10                          5:23       0.369     
10                          5:24       0.369     
10                          5:25       0.369     
10                          5:26       0.369     
10                          5:27       0.369     
10                          5:28       0.369     
10                          5:29       0.369     
10                          5:30       0.369     
10                          5:31       0.369     
10                          5:32       0.369     
10                          5:33       0.369     
10                          5:34       0.369     
10                          5:35       0.369     
10                          5:36       0.369     
10                          5:37       0.369     
10                          5:38       0.369     
10                          5:39       0.369     
10                          5:40       0.369     
10                          5:41       0.369     
10                          5:42       0.369     
10                          5:43       0.369     
10                          5:44       0.369     
10                          5:45       0.369     
10                          5:46       0.369     
10                          5:47       0.369     
10                          5:48       0.369     
10                          5:49       0.369     
10                          5:50       0.369     
10                          5:51       0.369     
10                          5:52       0.369     
10                          5:53       0.369     
10                          5:54       0.369     
10                          5:55       0.369     
10                          5:56       0.369     
10                          5:57       0.369     
10                          5:58       0.369     
10                          5:59       0.369     
10                          6:00       0.369     
;
20                          0:00       0.403     
20                          0:01       0.403     
20                          0:02       0.403     
20                          0:03       0.403     
20                          0:04       0.403     
20                          0:05       0.403     
20                          0:06       0.403     
20                          0:07       0.403     
20                          0:08       0.403     
20                          0:09       0.403     
20                          0:10       0.403     
20                          0:11       0.403     
20                          0:12       0.403     
20                          0:13       0.403     
20                          0:14       0.403     
20                          0:15       0.403     
20                          0:16       0.403     
20                          0:17       0.403     
20                          0:18       0.403     
20                          0:19       0.403     
20                          0:20       0.403     
20                          0:21       0.403     
20                          0:22       0.403     
20                          0:23       0.403     
20                          0:24       0.403     
20                          0:25       0.403     
20                          0:26       0.403     
20                          0:27       0.403     
20                          0:28       0.403     
20                          0:29       0.403     
20                          0:30       0.403     
20                          0:31       0.403     
20                          0:32       0.403     
20                          0:33       0.403     
20                          0:34       0.403     
20                          0:35       0.403     
20                          0:36       0.403     
20                          0:37       0.403     
20                          0:38       0.403     
20                          0:39       0.403     
20                          0:40       0.403     
20                          0:41       0.403     
20                          0:42       0.403     
20                          0:43       0.403     
20                          0:44       0.403     
20                          0:45       0.403     
20                          0:46       0.403     
20                          0:47       0.403     
20                          0:48       0.403     
20                          0:49       0.403     
20                          0:50       0.403     
20                          0:51       0.403     
20                          0:52       0.403     
20                          0:53       0.403     
20                          0:54       0.403     
20                          0:55       0.403     
20                          0:56       0.403     
20                          0:57       0.403     
20                          0:58       0.403     
20                          0:59       0.403     
20                          1:00       0.403     
20                          1:01       0.403     
20                          1:02       0.403     
20                          1:03       0.403     
20                          1:04       0.403     
20                          1:05       0.403     
20                          1:06       0.403     
20                          1:07       0.403     
20                          1:08       0.403     
20                          1:09       0.403     
20                          1:10       0.403     
20                          1:11       0.403     
20                          1:12       0.403     
20                          1:13       0.403     
20                          1:14       0.403     
20                          1:15       0.403     
20                          1:16       0.403     
20                          1:17       0.403     
20                          1:18       0.403     
20                          1:19       0.403     
20                          1:20       0.403     
20                          1:21       0.403     
20                          1:22       0.403     
20                          1:23       0.403     
20                          1:24       0.403     
20                          1:25       0.403     
20                          1:26       0.403     
20                          1:27       0.403     
20                          1:28       0.403     
20                          1:29       0.403     
20                          1:30       0.403     
20                          1:31       0.403     
20                          1:32       0.403     
20                          1:33       0.403     
20                          1:34       0.403     
20                          1:35       0.403     
20                          1:36       0.403     
20                          1:37       0.403     
20                          1:38       0.403     
20                          1:39       0.403     
20                          1:40       0.403     
20                          1:41       0.403     
20                          1:42       0.403     
20                          1:43       0.403     
20                          1:44       0.403     
20                          1:45       0.403     
20                          1:46       0.403     
20                          1:47       0.403     
20                          1:48       0.403     
20                          1:49       0.403     
20                          1:50       0.403     
20                          1:51       0.403     
20                          1:52       0.403     
20                          1:53       0.403     
20                          1:54       0.403     
20                          1:55       0.403     
20                          1:56       0.403     
20                          1:57       0.403     
20                          1:58       0.403     
20                          1:59       0.403     
20                          2:00       0.403     
20                          2:01       0.403     
20                          2:02       0.403     
20                          2:03       0.403     
20                          2:04       0.403     
20                          2:05       0.403     
20                          2:06       0.403     
20                          2:07       0.403     
20                          2:08       0.403     
20                          2:09       0.403     
20                          2:10       0.403     
20                          2:11       0.403     
20                          2:12       0.403     
20                          2:13       0.403     
20                          2:14       0.403     
20                          2:15       0.403     
20                          2:16       0.403     
20                          2:17       0.403     
20                          2:18       0.403     