[TITLE]
;;Project Title/Notes

[OPTIONS]
;;Option             Value
FLOW_UNITS           CMS
INFILTRATION         HORTON
FLOW_ROUTING         DYNWAVE
LINK_OFFSETS         DEPTH
MIN_SLOPE            0
ALLOW_PONDING        YES
SKIP_STEADY_STATE    YES

START_DATE           10/12/2020
START_TIME           00:00:00
REPORT_START_DATE    10/12/2020
REPORT_START_TIME    00:00:00
END_DATE             10/12/2020
END_TIME             23:00:00
SWEEP_START          01/01
SWEEP_END            12/31
DRY_DAYS             0
REPORT_STEP          00:01:00
WET_STEP             00:01:00
DRY_STEP             06:00:00
ROUTING_STEP         0:00:05 
RULE_STEP            00:00:00

INERTIAL_DAMPING     PARTIAL
NORMAL_FLOW_LIMITED  BOTH
FORCE_MAIN_EQUATION  H-W
VARIABLE_STEP        0.75
LENGTHENING_STEP     0
MIN_SURFAREA         1.14
MAX_TRIALS           8
HEAD_TOLERANCE       0
SYS_FLOW_TOL         5
LAT_FLOW_TOL         5
MINIMUM_STEP         0.5
THREADS              1

[EVAPORATION]
;;Data Source    Parameters
;;-------------- ----------------
CONSTANT         0.0
DRY_ONLY         NO

[RAINGAGES]
;;Name           Format    Interval SCF      Source    
;;-------------- --------- ------ ------ ----------
1                VOLUME    0:01     1.0      TIMESERIES 10              

[SUBCATCHMENTS]
;;Name           Rain Gage        Outlet           Area     %Imperv  Width    %Slope   CurbLen  SnowPack        
;;-------------- ---------------- ---------------- -------- -------- -------- -------- -------- ----------------
49               1                46               0.5535   40       55.35    0.1      0                        
50               1                46               1.0385   40       103.85   0.1      0                        
51               1                46               0.1886   55       28.85    0.1      0                        
52               1                46               0.2807   75       28.07    0.1      0                        
53               1                46               0.2382   60       23.82    0.1      0                        
54               1                46               0.5524   55       55.24    0.1      0                        
55               1                46               0.2643   35       26.43    0.1      0                        
56               1                46               0.3693   55       36.93    0.1      0                        
57               1                46               0.3761   65       37.61    0.1      0                        
58               1                46               0.2070   50       20.70    0.1      0                        
59               1                46               0.4048   45       40.48    0.1      0                        
60               1                46               0.3387   25       33.87    0.1      0                        
61               1                46               0.2874   35       28.74    0.1      0                        
62               1                46               0.6003   55       60.03    0.1      0                        
63               1                46               0.2423   45       24.23    0.1      0                        
64               1                46               0.3606   35       36.06    0.1      0                        
65               1                46               0.2571   65       25.71    0.5      0                        
66               1                46               0.3292   65       32.92    0.1      0                        

[SUBAREAS]
;;Subcatchment   N-Imperv   N-Perv     S-Imperv   S-Perv     PctZero    RouteTo    PctRouted 
;;-------------- ---------- ---------- ---------- ---------- ---------- ---------- ----------
49               0.024      0.15       2.1        6.51       30         OUTLET    
50               0.024      0.15       2.1        6.51       30         OUTLET    
51               0.024      0.15       2.1        6.51       30         OUTLET    
52               0.024      0.15       2.1        6.51       30         OUTLET    
53               0.024      0.15       2.1        6.51       30         OUTLET    
54               0.024      0.15       2.1        6.51       30         OUTLET    
55               0.024      0.15       2.1        6.51       30         OUTLET    
56               0.024      0.15       2.1        6.51       30         OUTLET    
57               0.024      0.15       2.1        6.51       30         OUTLET    
58               0.024      0.15       2.1        6.51       30         OUTLET    
59               0.024      0.15       2.1        6.51       30         OUTLET    
60               0.024      0.15       2.1        6.51       30         OUTLET    
61               0.024      0.15       2.1        6.51       30         OUTLET    
62               0.024      0.15       2.1        6.51       30         OUTLET    
63               0.024      0.15       2.1        6.51       30         OUTLET    
64               0.024      0.15       2.1        6.51       30         OUTLET    
65               0.024      0.15       2.1        6.51       30         OUTLET    
66               0.024      0.15       2.1        6.51       30         OUTLET    

[INFILTRATION]
;;Subcatchment   Param1     Param2     Param3     Param4     Param5    
;;-------------- ---------- ---------- ---------- ---------- ----------
49               103.81     11.44      2.75       7          0         
50               103.81     11.44      2.75       7          0         
51               103.81     11.44      2.75       7          0         
52               103.81     11.44      2.75       7          0         
53               103.81     11.44      2.75       7          0         
54               103.81     11.44      2.75       7          0         
55               103.81     11.44      2.75       7          0         
56               103.81     11.44      2.75       7          0         
57               103.81     11.44      2.75       7          0         
58               103.81     11.44      2.75       7          0         
59               103.81     11.44      2.75       7          0         
60               103.81     11.44      2.75       7          0         
61               103.81     11.44      2.75       7          0         
62               103.81     11.44      2.75       7          0         
63               103.81     11.44      2.75       7          0         
64               103.81     11.44      2.75       7          0         
65               103.81     11.44      2.75       7          0         
66               103.81     11.44      2.75       7          0         

[LID_CONTROLS]
;;Name           Type/Layer Parameters
;;-------------- ---------- ----------
1                BC
1                SURFACE    300        0.05       0.1        0.5        5         
1                SOIL       900        0.5        0.15       0.08       50         10         80        
1                STORAGE    300        0.67       13         0          NO        
1                DRAIN      2.5        2.5        150        6          0          0                    

2                PP
2                SURFACE    0.0        0.0        0.012      0.5        5         
2                PAVEMENT   100        0.15       0          500        0          0          0         
2                STORAGE    300        0.4        13         0          NO        
2                DRAIN      2.5        0.5        100        6          0          0                    

[LID_USAGE]
;;Subcatchment   LID Process      Number  Area       Width      InitSat    FromImp    ToPerv     RptFile                  DrainTo          FromPerv  
;;-------------- ---------------- ------- ---------- ---------- ---------- ---------- ---------- ------------------------ ---------------- ----------

[JUNCTIONS]
;;Name           Elevation  MaxDepth   InitDepth  SurDepth   Aponded   
;;-------------- ---------- ---------- ---------- ---------- ----------
1                18         1          0          0          400       
2                18         1          0          0          400       
3                18         1          0          0          400       
4                18         1          0          0          400       
5                18         1          0          0          400       
6                18         1          0          0          400       
7                18         1          0          0          400       
8                18         1          0          0          400       
9                18         1          0          0          400       
10               18         1          0          0          400       
11               18         1          0          0          400       
12               18         1          0          0          400       
13               18         1          0          0          400       
14               18         1          0          0          400       
15               18         1          0          0          400       
16               18         1          0          0          400       
17               18         1          0          0          400       
18               18         1          0          0          400       
19               18         1          0          0          400       
20               18         1          0          0          400       
21               18         1          0          0          400       
22               18         1          0          0          400       
23               18         1          0          0          400       
24               18         1          0          0          400       
25               18         1          0          0          400       
26               18         1          0          0          400       
27               18         1          0          0          400       
28               18         1          0          0          400       
29               18         1          0          0          400       
30               18         1          0          0          400       
31               18         1          0          0          400       
32               18         1          0          0          400       
33               18         1          0          0          400       
34               18         1          0          0          400       
35               18         1          0          0          400       
36               18         1          0          0          400       
37               18         1          0          0          400       
38               18         1          0          0          400       
39               18         1          0          0          400       
40               18         1          0          0          400       

[OUTFALLS]
;;Name           Elevation  Type       Stage Data       Gated    Route To        
;;-------------- ---------- ---------- ---------------- -------- ----------------
41               0          FREE                        NO                       
42               0          FREE                        NO                       
43               0          FREE                        NO                       
44               0          FREE                        NO                       
45               0          FREE                        NO                       
46               0          FREE                        NO                       
47               0          FREE                        NO                       
48               0          FREE                        NO                       

[CONDUITS]
;;Name           From Node        To Node          Length     Roughness  InOffset   OutOffset  InitFlow   MaxFlow   
;;-------------- ---------------- ---------------- ---------- ---------- ---------- ---------- ---------- ----------
1                2                1                77.59      0.01       0          0          0          0         
2                3                2                65.96      0.01       0          0          0          0         
3                3                4                30.00      0.01       0          0          0          0         
4                4                5                42.57      0.01       0          0          0          0         
5                5                6                24.70      0.01       0          0          0          0         
6                6                7                17.50      0.01       0          0          0          0         
7                7                1                77.12      0.01       0          0          0          0         
8                15               3                72.00      0.01       0          0          0          0         
9                15               14               30.00      0.01       0          0          0          0         
10               14               4                75.00      0.01       0          0          0          0         
11               14               13               45.50      0.01       0          0          0          0         
12               13               5                70.00      0.01       0          0          0          0         
13               13               12               27.80      0.01       0          0          0          0         
14               12               6                70.00      0.01       0          0          0          0         
15               12               11               56.16      0.01       0          0          0          0         
16               11               10               33.72      0.01       0          0          0          0         
17               10               9                81.50      0.01       0          0          0          0         
18               8                9                115.92     0.01       0          0          0          0         
19               16               15               78.50      0.01       0          0          0          0         
20               16               11               77.18      0.01       0          0          0          0         
21               16               17               45.52      0.01       0          0          0          0         
22               17               10               85.17      0.01       0          0          0          0         
23               17               18               50.00      0.01       0          0          0          0         
24               18               19               85.50      0.01       0          0          0          0         
25               10               19               52.85      0.01       0          0          0          0         
26               18               20               65.29      0.01       0          0          0          0         
27               20               21               80.50      0.01       0          0          0          0         
28               19               21               60.00      0.01       0          0          0          0         
29               20               22               33.52      0.01       0          0          0          0         
30               22               23               79.82      0.01       0          0          0          0         
31               23               21               52.37      0.01       0          0          0          0         
32               22               24               55.41      0.01       0          0          0          0         
33               24               25               86.35      0.01       0          0          0          0         
34               25               26               55.78      0.01       0          0          0          0         
35               23               26               20.20      0.01       0          0          0          0         
36               24               27               52.34      0.01       0          0          0          0         
37               27               28               78.96      0.01       0          0          0          0         
38               28               25               25.89      0.01       0          0          0          0         
39               28               36               45.67      0.01       0          0          0          0         
40               7                8                62.89      0.01       0          0          0          0         
41               36               37               75.00      0.01       0          0          0          0         
42               37               26               48.98      0.01       0          0          0          0         
43               27               29               42.90      0.01       0          0          0          0         
44               29               30               60.00      0.01       0          0          0          0         
45               30               28               51.98      0.01       0          0          0          0         
46               33               30               40.00      0.01       0          0          0          0         
47               33               34               74.78      0.01       0          0          0          0         
48               34               35               65.80      0.01       0          0          0          0         
49               35               36               75.88      0.01       0          0          0          0         
50               35               40               43.85      0.01       0          0          0          0         
51               40               37               90.00      0.01       0          0          0          0         
52               39               40               35.98      0.01       0          0          0          0         
53               39               38               85.65      0.01       0          0          0          0         
54               38               37               30.89      0.01       0          0          0          0         
55               29               31               98.50      0.01       0          0          0          0         
56               32               31               67.80      0.01       0          0          0          0         
57               32               33               60.79      0.01       0          0          0          0         
58               2                41               15.00      0.01       0          0          0          0         
59               7                42               15.00        0.01       0          0          0          0         
60               9                43               15.00        0.01       0          0          0          0         
61               10               44               15.00        0.01       0          0          0          0         
62               19               45               15.00        0.01       0          0          0          0         
63               21               46               15.00      0.01       0          0          0          0         
64               23               47               15.00        0.01       0          0          0          0         
65               37               48               15.00        0.01       0          0          0          0         

[XSECTIONS]
;;Link           Shape        Geom1            Geom2      Geom3      Geom4      Barrels    Culvert   
;;-------------- ------------ ---------------- ---------- ---------- ---------- ---------- ----------
1                CIRCULAR     1                0          0          0          1                    
2                CIRCULAR     1                0          0          0          1                    
3                CIRCULAR     1                0          0          0          1                    
4                CIRCULAR     1                0          0          0          1                    
5                CIRCULAR     1                0          0          0          1                    
6                CIRCULAR     1                0          0          0          1                    
7                CIRCULAR     1                0          0          0          1                    
8                CIRCULAR     1                0          0          0          1                    
9                CIRCULAR     1                0          0          0          1                    
10               CIRCULAR     1                0          0          0          1                    
11               CIRCULAR     1                0          0          0          1                    
12               CIRCULAR     1                0          0          0          1                    
13               CIRCULAR     1                0          0          0          1                    
14               CIRCULAR     1                0          0          0          1                    
15               CIRCULAR     1                0          0          0          1                    
16               CIRCULAR     1                0          0          0          1                    
17               CIRCULAR     1                0          0          0          1                    
18               CIRCULAR     1                0          0          0          1                    
19               CIRCULAR     1                0          0          0          1                    
20               CIRCULAR     1                0          0          0          1                    
21               CIRCULAR     1                0          0          0          1                    
22               CIRCULAR     1                0          0          0          1                    
23               CIRCULAR     1                0          0          0          1                    
24               CIRCULAR     1                0          0          0          1                    
25               CIRCULAR     1                0          0          0          1                    
26               CIRCULAR     1                0          0          0          1                    
27               CIRCULAR     1                0          0          0          1                    
28               CIRCULAR     1                0          0          0          1                    
29               CIRCULAR     1                0          0          0          1                    
30               CIRCULAR     1                0          0          0          1                    
31               CIRCULAR     1                0          0          0          1                    
32               CIRCULAR     1                0          0          0          1                    
33               CIRCULAR     1                0          0          0          1                    
34               CIRCULAR     1                0          0          0          1                    
35               CIRCULAR     1                0          0          0          1                    
36               CIRCULAR     1                0          0          0          1                    
37               CIRCULAR     1                0          0          0          1                    
38               CIRCULAR     1                0          0          0          1                    
39               CIRCULAR     1                0          0          0          1                    
40               CIRCULAR     1                0          0          0          1                    
41               CIRCULAR     1                0          0          0          1                    
42               CIRCULAR     1                0          0          0          1                    
43               CIRCULAR     1                0          0          0          1                    
44               CIRCULAR     1                0          0          0          1                    
45               CIRCULAR     1                0          0          0          1                    
46               CIRCULAR     1                0          0          0          1                    
47               CIRCULAR     1                0          0          0          1                    
48               CIRCULAR     1                0          0          0          1                    
49               CIRCULAR     1                0          0          0          1                    
50               CIRCULAR     1                0          0          0          1                    
51               CIRCULAR     1                0          0          0          1                    
52               CIRCULAR     1                0          0          0          1                    
53               CIRCULAR     1                0          0          0          1                    
54               CIRCULAR     1                0          0          0          1                    
55               CIRCULAR     1                0          0          0          1                    
56               CIRCULAR     1                0          0          0          1                    
57               CIRCULAR     1                0          0          0          1                    
58               CIRCULAR     1                0          0          0          1                    
59               CIRCULAR     1                0          0          0          1                    
60               CIRCULAR     1                0          0          0          1                    
61               CIRCULAR     1                0          0          0          1                    
62               CIRCULAR     1                0          0          0          1                    
63               CIRCULAR     1                0          0          0          1                    
64               CIRCULAR     1                0          0          0          1                    
65               CIRCULAR     1                0          0          0          1                    

[TIMESERIES]
;;Name           Date       Time       Value     
;;-------------- ---------- ---------- ----------
10                          0:00       0.369     
10                          0:01       0.369     
10                          0:02       0.369     
10                          0:03       0.369     
10                          0:04       0.369     
10                          0:05       0.369     
10                          0:06       0.369     
10                          0:07       0.369     
10                          0:08       0.369     
10                          0:09       0.369     
10                          0:10       0.369     
10                          0:11       0.369     
10                          0:12       0.369     
10                          0:13       0.369     
10                          0:14       0.369     
10                          0:15       0.369     
10                          0:16       0.369     
10                          0:17       0.369     
10                          0:18       0.369     
10                          0:19       0.369     
10                          0:20       0.369     
10                          0:21       0.369     
10                          0:22       0.369     
10                          0:23       0.369     
10                          0:24       0.369     
10                          0:25       0.369     
10                          0:26       0.369     
10                          0:27       0.369     
10                          0:28       0.369     
10                          0:29       0.369     
10                          0:30       0.369     
10                          0:31       0.369     
10                          0:32       0.369     
10                          0:33       0.369     
10                          0:34       0.369     
10                          0:35       0.369     
10                          0:36       0.369     
10                          0:37       0.369     
10                          0:38       0.369     
10                          0:39       0.369     
10                          0:40       0.369     
10                          0:41       0.369     
10                          0:42       0.369     
10                          0:43       0.369     
10                          0:44       0.369     
10                          0:45       0.369     
10                          0:46       0.369     
10                          0:47       0.369     
10                          0:48       0.369     
10                          0:49       0.369     
10                          0:50       0.369     
10                          0:51       0.369     
10                          0:52       0.369     
10                          0:53       0.369     
10                          0:54       0.369     
10                          0:55       0.369     
10                          0:56       0.369     
10                          0:57       0.369     
10                          0:58       0.369     
10                          0:59       0.369     
10                          1:00       0.369     
10                          1:01       0.369     
10                          1:02       0.369     
10                          1:03       0.369     
10                          1:04       0.369     
10                          1:05       0.369     
10                          1:06       0.369     
10                          1:07       0.369     