[TITLE]
;;Project Title/Notes

[OPTIONS]
;;Option             Value
FLOW_UNITS           LPS
INFILTRATION         HORTON
FLOW_ROUTING         DYNWAVE
LINK_OFFSETS         DEPTH
MIN_SLOPE            0
ALLOW_PONDING        YES
SKIP_STEADY_STATE    YES

START_DATE           10/12/2020
START_TIME           00:00:00
REPORT_START_DATE    10/12/2020
REPORT_START_TIME    00:00:00
END_DATE             10/12/2020
END_TIME             06:00:00
SWEEP_START          1/1
SWEEP_END            12/31
DRY_DAYS             0
REPORT_STEP          00:01:00
WET_STEP             00:01:00
DRY_STEP             00:30:00
ROUTING_STEP         0:01:00 

INERTIAL_DAMPING     PARTIAL
NORMAL_FLOW_LIMITED  BOTH
FORCE_MAIN_EQUATION  H-W
VARIABLE_STEP        0.75
LENGTHENING_STEP     0
MIN_SURFAREA         1.14
MAX_TRIALS           8
HEAD_TOLERANCE       0.0015
SYS_FLOW_TOL         5
LAT_FLOW_TOL         5
MINIMUM_STEP         0.5
THREADS              1


[EVAPORATION]
;;Data Source    Parameters
;;-------------- ----------------
CONSTANT         0.0
DRY_ONLY         NO

[RAINGAGES]
;;Name           Format    Interval SCF      Source    
;;-------------- --------- ------ ------ ----------
1                VOLUME 0:01     1.0      TIMESERIES 5yChicago-6h

[SUBCATCHMENTS]
;;Name           Rain Gage        Outlet           Area     %Imperv  Width    %Slope   CurbLen  SnowPack        
;;-------------- ---------------- ---------------- -------- -------- -------- -------- -------- ----------------
67            1           49       0.5535           95        55.35          0.5            0
68             1            50        1.0385            70        103.85           0.5             0
69            1           51       0.1886           95        28.85          0.5            0
70            1           52       0.2807           95        28.07          0.5            0
71            1           53       0.2382           95        23.82          0.5            0
72            1           54       0.5524           95        55.24          0.5            0
73            1           55       0.2643           95        26.43          0.5            0
74            1           56       0.3693           95        36.93          0.5            0
75            1           57       0.3761           95        37.61          0.5            0
76            1           58        0.207           95         20.7          0.5            0
77            1           59       0.4048           95        40.48          0.5            0
78            1           60       0.3387           95        33.87          0.5            0
79            1           61       0.2874           95        28.74          0.5            0
80            1           62       0.6003           95        60.03          0.5            0
81            1           63       0.2423           95        24.23          0.5            0
82            1           64       0.3606           95        36.06          0.5            0
83            1           65       0.2571           30        25.71          0.5            0
84            1           66       0.3292           95        32.92          0.5            0





























































































[SUBAREAS]
;;Subcatchment   N-Imperv   N-Perv     S-Imperv   S-Perv     PctZero    RouteTo    PctRouted 
;;-------------- ---------- ---------- ---------- ---------- ---------- ---------- ----------
67        0.024         0.15          2.1         6.51           30    OUTLET
68        0.024         0.15          2.1         6.51           30    OUTLET
69        0.024         0.15          2.1         6.51           30    OUTLET
70        0.024         0.15          2.1         6.51           30    OUTLET
71        0.024         0.15          2.1         6.51           30    OUTLET
72        0.024         0.15          2.1         6.51           30    OUTLET
73        0.024         0.15          2.1         6.51           30    OUTLET
74        0.024         0.15          2.1         6.51           30    OUTLET
75        0.024         0.15          2.1         6.51           30    OUTLET
76        0.024         0.15          2.1         6.51           30    OUTLET
77        0.024         0.15          2.1         6.51           30    OUTLET
78        0.024         0.15          2.1         6.51           30    OUTLET
79        0.024         0.15          2.1         6.51           30    OUTLET
80        0.024         0.15          2.1         6.51           30    OUTLET
81        0.024         0.15          2.1         6.51           30    OUTLET
82        0.024         0.15          2.1         6.51           30    OUTLET
83        0.024         0.15          2.1         6.51           30    OUTLET
84        0.024         0.15          2.1         6.51           30    OUTLET
































































































[INFILTRATION]
;;Subcatchment   MaxRate    MinRate    Decay      DryTime    MaxInfil  
;;-------------- ---------- ---------- ---------- ---------- ----------
67        103.81         11.44          2.75             7             0
68        103.81         11.44          2.75             7             0
69        103.81         11.44          2.75             7             0
70        103.81         11.44          2.75             7             0
71        103.81         11.44          2.75             7             0
72        103.81         11.44          2.75             7             0
73        103.81         11.44          2.75             7             0
74        103.81         11.44          2.75             7             0
75        103.81         11.44          2.75             7             0
76        103.81         11.44          2.75             7             0
77        103.81         11.44          2.75             7             0
78        103.81         11.44          2.75             7             0
79        103.81         11.44          2.75             7             0
80        103.81         11.44          2.75             7             0
81        103.81         11.44          2.75             7             0
82        103.81         11.44          2.75             7             0
83        103.81         11.44          2.75             7             0
84        103.81         11.44          2.75             7             0























































































































[LID_CONTROLS]
;;Name           Type/Layer Parameters
;;-------------- ---------- ----------
1                BC
1                SURFACE    450        0.05       0.1        0.5        5         
1                SOIL       900        0.5        0.15       0.08       50         10         80        
1                STORAGE    300        0.67       500         0         
1                DRAIN      2.5        2.5        150        6          0          0                    

2                PP
2                SURFACE    0.0        0.0        0.012      0.5        5         
2                PAVEMENT   100        0.15       0          500        0          0          0         
2                STORAGE    300        0.4        500         0         
2                DRAIN      2.5        0.5        100        6          0          0                    

[LID_USAGE]
;;Subcatchment   LID Process      Number  Area       Width      InitSat    FromImp    ToPerv     RptFile                  DrainTo         
;;-------------- ---------------- ------- ---------- ---------- ---------- ---------- ---------- ------------------------ ----------------
67    2    2  150   10    0   60    1
68    2    0  150   10    0    0    1
69             2             1           150            10             0      42.85714             1
70             2             1           150            10             0      42.85714             1
71    2    1  150   10    0  100    1
72    2    0  150   10    0    0    1
73             2             1           150            10             0      42.85714             1
74    2    1  150   10    0  100    1
75    2    2  150   10    0   60    1
76    2    0  150   10    0    0    1
77    2    0  150   10    0    0    1
78    2    2  150   10    0  100    1
79    2    1  150   10    0  100    1
80             2             1           150            10             0      27.27273             1
81    2    0  150   10    0    0    1
82    2    0  150   10    0    0    1
83    2    1  150   10    0  100    1
84    2    0  150   10    0    0    1




















































    

































































































[JUNCTIONS]
;;Name           Elevation  MaxDepth   InitDepth  SurDepth   Aponded   
;;-------------- ---------- ---------- ---------- ---------- ----------
1      16.2046      1.79537            0            0            0
2      16.3133      1.68674            0            0            0
3      16.4056       1.5944            0            0            0
4       16.719        1.281            0            0            0
5      15.6545      2.34554            0            0            0
6      15.6792      2.32084            0            0            0
7      15.6967      2.30334            0            0            0
8      16.1351      1.86486            0            0            0
9      16.2511      1.74894            0            0            0
10      16.3326      1.66744            0            0            0
11      16.6877      1.31232            0            0            0
12        16.95         1.05            0            0            0
13      15.5845      2.41554            0            0            0
14       15.539      2.46104            0            0            0
15       15.509      2.49104            0            0            0
16      15.4305      2.56954            0            0            0
17      15.3849      2.61506            0            0            0
18      15.3349      2.66506            0            0            0
19      15.2494      2.75056            0            0            0
20      15.0673      2.93268            0            0            0
21      14.9868      3.01318            0            0            0
22      15.1008      2.89916            0            0            0
23      14.9344      3.06555            0            0            0
24      15.3562      2.64375            0            0            0
25      16.4273       1.5727            0            0            0
26        16.95         1.05            0            0            0
27      15.4086      2.59141            0            0            0
28       16.237      1.76301            0            0            0
29      15.8944      2.10561            0            0            0
30      16.6597      1.34035            0            0            0
31      16.3399      1.66011            0            0            0
32      16.5433      1.45671            0            0            0
33      16.7257      1.27434            0            0            0
34        16.95         1.05            0            0            0
35      16.4923      1.50766            0            0            0
36      16.3009      1.69907            0            0            0
37      16.1016       1.8984            0            0            0
38      16.2225      1.77748            0            0            0
39      16.5424      1.45757            0            0            0
40      16.6816      1.31839            0            0            0
41        16.95         1.05            0            0            0
42        16.95         1.05            0            0            0
43        16.95         1.05            0            0            0
44        16.95         1.05            0            0            0
45        16.95         1.05            0            0            0
46        16.95         1.05            0            0            0
49        16.85         1.15            0            0            0
50         16.8          1.2            0            0            0
51         16.4          1.6            0            0            0
52         16.4          1.6            0            0            0
53        16.85         1.15            0            0            0
54         16.8          1.2            0            0            0
55         16.8          1.2            0            0            0
56         16.4          1.6            0            0            0
57         16.6          1.4            0            0            0
58         16.8          1.2            0            0            0
59        16.67         1.33            0            0            0
60         16.8          1.2            0            0            0
61        16.85         1.15            0            0            0
62         16.8          1.2            0            0            0
63        16.95         1.05            0            0            0
64        16.85         1.15            0            0            0
65        16.67         1.33            0            0            0
66        16.85         1.15            0            0            0
































































[OUTFALLS]
;;Name           Elevation  Type       Stage Data       Gated    Route To        
;;-------------- ---------- ---------- ---------------- -------- ----------------
47      14.9194          FREE                        NO
48      16.0866          FREE                        NO
































































































                     

[CONDUITS]
;;Name           From Node        To Node          Length     Roughness  InOffset   OutOffset  InitFlow   MaxFlow   
;;-------------- ---------------- ---------------- ---------- ---------- ---------- ---------- ---------- ----------
64   23   47   15  100    0    0    0    0
30           58           23        79.82         0.01            0      1.70591            0            0
31            21            23         52.37           100             0             0             0             0
27            20            21          80.5           100             0             0             0             0
28            19            21            60           100             0      0.202622             0             0
63           46           21           15         0.01            0      1.91818            0            0
29            22            20         33.52           100             0             0             0             0
24            18            19          85.5           100             0             0             0             0
62           45           19           15         0.01            0      1.65556            0            0
32            24            22         55.41           100             0           0.2             0             0
23   17   18   50  100    0    0    0    0
26            57            18         65.29           100             0      1.173652             0             0
36            27            24         52.34           100             0             0             0             0
21            16            17         45.52           100             0             0             0             0
22           55           17        85.17         0.01            0      1.24472            0            0
37            28            27         78.96           100             0       0.71786             0             0
43           29           27         42.9         0.01            0          0.4            0            0
19            15            16          78.5           100             0             0             0             0
20           11           16        77.18         0.01            0      1.10286            0            0
38            25            28         25.89           100             0       0.15406             0             0
39            36            28         45.67           100             0             0             0             0
44           30           29           60         0.01            0     0.645264            0            0
55           31           29         98.5         0.01            0         0.15            0            0
9   14   15   30  100    0    0    0    0
15           54           11        56.16         0.01            0            0            0            0
33           60           25        86.35         0.01            0          0.2            0            0
34            59            25         55.78           100             0      0.153452             0             0
49            35            36         75.88           100             0          0.07             0             0
45           61           30        51.98         0.01            0         0.05            0            0
46           62           30           40         0.01            0     0.060346            0            0
56           32           31         67.8         0.01            0            0            0            0
10            52            14            75           100             0      0.786038             0             0
11            13            14          45.5           100             0             0             0             0
48           64           35         65.8         0.01            0         0.18            0            0
57           33           32        60.79         0.01            0            0            0            0
12    5   13   70  100    0    0    0    0
13            51            13          27.8           100             0      0.787738             0             0
47           34           33        74.78         0.01            0            0            0            0
4             4             5         42.57           100             0      0.979398             0             0
5             6             5          24.7           100             0             0             0             0
3           49            4           30         0.01            0         0.05            0            0
6             7             6          17.5           100             0             0             0             0
14           12            6           70         0.01            0      1.06084            0            0
7             1             7         77.12           100             0           0.4             0             0
40             8             7         62.89           100             0      0.375588             0             0
59           42            7           15         0.01            0      1.20834            0            0
1             2             1         77.59           100             0             0             0             0
18             9             8        115.92           100             0             0             0             0
2             3             2         65.96           100             0             0             0             0
58           41            2           15         0.01            0     0.591744            0            0
17            10             9          81.5           100             0             0             0             0
60           43            9           15         0.01            0      0.65394            0            0
8           53            3           72         0.01            0         0.25            0            0
16            50            10         33.72           100             0           0.4             0             0
25            56            10         52.85           100             0       0.01459             0             0
61           44           10           15         0.01            0      0.57244            0            0
65   37   48   15  100    0    0    0    0
42           26           37        48.98         0.01            0     0.701455            0            0
41           63           37           75         0.01            0     0.623395            0            0
51            40            37            90           100             0           0.4             0             0
54            38            37         30.89           100             0      0.090027             0             0
50           66           40        43.85         0.01            0         0.05            0            0
53            39            38         85.65           100             0           0.2             0             0
52            65            39         35.98           100             0          0.07             0             0































































[XSECTIONS]
;;Link           Shape        Geom1            Geom2      Geom3      Geom4      Barrels    Culvert   
;;-------------- ------------ ---------------- ---------- ---------- ---------- ---------- ----------
64          CIRCULAR     1  0  0  0  1
30          CIRCULAR     0.4           0           0           0           1
31          CIRCULAR     1  0  0  0  1
27          CIRCULAR     1  0  0  0  1
28          CIRCULAR     1  0  0  0  1
63          CIRCULAR     0.25           0           0           0           1
29          CIRCULAR     1  0  0  0  1
24          CIRCULAR     1  0  0  0  1
62          CIRCULAR     0.25           0           0           0           1
32          CIRCULAR     0.8           0           0           0           1
23          CIRCULAR     1  0  0  0  1
26          CIRCULAR     0.6           0           0           0           1
36          CIRCULAR     0.8           0           0           0           1
21          CIRCULAR     1  0  0  0  1
22          CIRCULAR     0.4           0           0           0           1
37          CIRCULAR     0.6           0           0           0           1
43          CIRCULAR     0.4           0           0           0           1
19          CIRCULAR     1  0  0  0  1
20          CIRCULAR     0.4           0           0           0           1
38          CIRCULAR     0.6           0           0           0           1
39          CIRCULAR     0.6           0           0           0           1
44          CIRCULAR     0.4           0           0           0           1
55          CIRCULAR     0.25           0           0           0           1
 9          CIRCULAR     1  0  0  0  1
15          CIRCULAR     0.4           0           0           0           1
33          CIRCULAR     0.4           0           0           0           1
34          CIRCULAR     0.53           0           0           0           1
49          CIRCULAR     0.53           0           0           0           1
45          CIRCULAR     0.35           0           0           0           1
46          CIRCULAR     0.4           0           0           0           1
56          CIRCULAR     0.25           0           0           0           1
10          CIRCULAR     0.8           0           0           0           1
11          CIRCULAR     1  0  0  0  1
48          CIRCULAR     0.35           0           0           0           1
57          CIRCULAR     0.25           0           0           0           1
12          CIRCULAR     1  0  0  0  1
13          CIRCULAR     0.8           0           0           0           1
47          CIRCULAR     0.25           0           0           0           1
 4          CIRCULAR     0.4           0           0           0           1
 5          CIRCULAR     1  0  0  0  1
 3          CIRCULAR     0.35           0           0           0           1
 6          CIRCULAR     1  0  0  0  1
14          CIRCULAR     0.25           0           0           0           1
 7          CIRCULAR     0.6           0           0           0           1
40          CIRCULAR     0.8           0           0           0           1
59          CIRCULAR     0.25           0           0           0           1
 1          CIRCULAR     0.6           0           0           0           1
18          CIRCULAR     0.8           0           0           0           1
 2          CIRCULAR     0.6           0           0           0           1
58          CIRCULAR     0.25           0           0           0           1
17          CIRCULAR     0.8           0           0           0           1
60          CIRCULAR     0.25           0           0           0           1
 8          CIRCULAR     0.35           0           0           0           1
16          CIRCULAR     0.4           0           0           0           1
25          CIRCULAR     0.8           0           0           0           1
61          CIRCULAR     0.25           0           0           0           1
65          CIRCULAR     0.8           0           0           0           1
42          CIRCULAR     0.25           0           0           0           1
41          CIRCULAR     0.25           0           0           0           1
51          CIRCULAR     0.4           0           0           0           1
54          CIRCULAR     0.8           0           0           0           1
50          CIRCULAR     0.35           0           0           0           1
53          CIRCULAR     0.6           0           0           0           1
52          CIRCULAR     0.53           0           0           0           1

















































































[TIMESERIES]
;;Name           Date       Time       Value     
;;-------------- ---------- ---------- ----------
10                          0:00       0.369     
10                          0:01       0.369     
10                          0:02       0.369     
10                          0:03       0.369     
10                          0:04       0.369     
10                          0:05       0.369     
10                          0:06       0.369     
10                          0:07       0.369     
10                          0:08       0.369     
10                          0:09       0.369     
10                          0:10       0.369     
10                          0:11       0.369     
10                          0:12       0.369     
10                          0:13       0.369     
10                          0:14       0.369     
10                          0:15       0.369     
10                          0:16       0.369     
10                          0:17       0.369     
10                          0:18       0.369     
10                          0:19       0.369     
10                          0:20       0.369     
10                          0:21       0.369     
10                          0:22       0.369     
10                          0:23       0.369     
10                          0:24       0.369     
10                          0:25       0.369     
10                          0:26       0.369     
10                          0:27       0.369     
10                          0:28       0.369     
10                          0:29       0.369     
10                          0:30       0.369     
10                          0:31       0.369     
10                          0:32       0.369     
10                          0:33       0.369     
10                          0:34       0.369     
10                          0:35       0.369     
10                          0:36       0.369     
10                          0:37       0.369     
10                          0:38       0.369     
10                          0:39       0.369     
10                          0:40       0.369     
10                          0:41       0.369     
10                          0:42       0.369     
10                          0:43       0.369     
10                          0:44       0.369     
10                          0:45       0.369     
10                          0:46       0.369     
10                          0:47       0.369     
10                          0:48       0.369     
10                          0:49       0.369     
10                          0:50       0.369     
10                          0:51       0.369     
10                          0:52       0.369     
10                          0:53       0.369     
10                          0:54       0.369     
10                          0:55       0.369     
10                          0:56       0.369     
10                          0:57       0.369     
10                          0:58       0.369     
10                          0:59       0.369     
10                          1:00       0.369     
10                          1:01       0.369     
10                          1:02       0.369     
10                          1:03       0.369     
10                          1:04       0.369     
10                          1:05       0.369     
10                          1:06       0.369     